;*****************************************************
;*             Generated from MIKE+            *
;*****************************************************

[TITLE]

[JUNCTIONS]
;------------------------------------------------------
;ID                 Elevation    Demand       Pattern
;------------------------------------------------------
10                 216.408000   
11                 216.408000   
12                 213.360000   
13                 211.836000   
21                 213.360000   
22                 211.836000   
23                 210.312000   
31                 213.360000   
32                 216.408000   

[RESERVOIRS]
;------------------------------------------------------
;ID                Head        Pattern 
;------------------------------------------------------
9                  243.840000                      

[TANKS]
;---------------------------------------------------------------------------------------------------------
;ID                Elev.        Init.        Min.         Max.         Diam.        MinVol       VolCurve       Overflow
;                               Level        Level        Level
;---------------------------------------------------------------------------------------------------------
2                  259.080000   36.576000    30.480000    45.720000    15.392400    0.000000     *            No 

[PIPES]
;-----------------------------------------------------------------
;ID                Head               Tail               Length       Diam         Rough.       Minor        CV
;                  Node               Node
;-----------------------------------------------------------------
10                 10                 11                 3209.544000  457.200000   100.000000   0.000000               
11                 11                 12                 1609.344000  355.600000   100.000000   0.000000               
110                2                  12                 60.960000    457.200000   100.000000   0.000000               
111                11                 21                 1609.344000  254.000000   100.000000   0.000000               
112                12                 22                 1609.344000  304.800000   100.000000   0.000000               
113                13                 23                 1609.344000  203.200000   100.000000   0.000000               
12                 12                 13                 1609.344000  254.000000   100.000000   0.000000               
121                21                 31                 1609.344000  203.200000   100.000000   0.000000               
122                22                 32                 1609.344000  152.400000   100.000000   0.000000               
21                 21                 22                 1609.344000  254.000000   100.000000   0.000000               
22                 22                 23                 1609.344000  304.800000   100.000000   0.000000               
31                 31                 32                 1609.344000  152.400000   100.000000   0.000000               

[VALVES]
;------------------------------------------------------
; ID          Head      Tail       Diam    Type   Setting  (Losscoef)
;             Node      Node
;------------------------------------------------------

[PUMPS]
;------------------------------------------------------------------
;ID                Head               Tail               Properties
;                  Node               Node
;------------------------------------------------------------------
9                  9                  10                  HEAD 1 

[VSD_PUMPS]
;-------------------------------------------------------------------------------------
;Pump              Node               Setpoint     Setpoint     SetpointType        Speed        Speed        ControlType
;ID                ID                 Value        Curve        0/1(pressure/HGL)    min          max          0/1(downstream node, any node)
;-------------------------------------------------------------------------------------

[EMITTERS]
;------------------------------------------------------
; Node           Flow Coeff.
; ID
;------------------------------------------------------

[DEMANDS]
;------------------------------------------------------------------
; NodeID            Demand   Pattern 
;------------------------------------------------------------------
10                 0.000000                        ;BASE
11                 9.463530                        ;BASE
12                 9.463530                        ;BASE
13                 6.309020                        ;BASE
21                 9.463530                        ;BASE
22                 12.618039                       ;BASE
23                 9.463530                        ;BASE
31                 6.309020                        ;BASE
32                 6.309020                        ;BASE

[PATTERNS]
;ID              	Multipliers
1                  1.000000    
1                  1.200000    
1                  1.400000    
1                  1.600000    
1                  1.400000    
1                  1.200000    
1                  1.000000    
1                  0.800000    
1                  0.600000    
1                  0.400000    
1                  0.600000    
1                  0.800000    

[STATUS]
;ID                Status/Setting

[CURVES]
;ID                X-Value      Y-Value
1                  94.635295    76.200000   

[CONTROLS]
LINK   9 OPEN  IF NODE 2 BELOW 33.528000
LINK   9 CLOSED IF NODE 2 ABOVE 42.672000

[RULES]

[MIXING]
;Tank              Model
2                  MIXED   
9                  MIXED   

[QUALITY]
;------------------------------------------------------------------
;Nodes             Initial
;ID                quality
;------------------------------------------------------------------
10                 0.500000    
11                 0.500000    
12                 0.500000    
13                 0.500000    
21                 0.500000    
22                 0.500000    
23                 0.500000    
31                 0.500000    
32                 0.500000    
2                  1.000000    
9                  1.000000    

[SOURCES]
;-----------------------------------------------
;NODEID            SRCTYPE  STRENGTH    PATTERN
;-----------------------------------------------

[REACTIONS]
GLOBAL BULK      -0.500000   
GLOBAL WALL      -1.000000   
GLOBAL    NewBulk   0.000000       0.000000    
ORDER BULK      1.000000    
ORDER WALL    1
ROUGHNESS CORRELATION      0.000000    

[ENERGY]
GLOBAL PRICE      0           
GLOBAL EFFIC      75          
DEMAND CHARGE      0           

[TIMES]
Duration   24:0:0
Hydraulic Timestep   1:0:0
Quality Timestep  0:5:0
Pattern Timestep  2:0:0
Pattern Start  0:0:0
Report Timestep  1:0:0
Report Start  0:0:0
Start Date  2022:10:13
Start ClockTime  0:00:00
STATISTIC  NONE

[REPORT]
;------------------------------------------------------
STATUS FULL
SUMMARY YES
MESSAGES YES
ENERGY YES
NODES NONE
LINKS NONE

[OPTIONS]
UNITS   LPS
DIFFUSIVITY 1.000000    
HEADLOSS   H-W
SPECIFIC GRAVITY 1.000000    
VISCOSITY   1.000000    
TRIALS   40          
TOLERANCE   0.010000    
ACCURACY   0.001000    
Quality   NONE
PATTERN   1
EMITTER EXPONENT  0.500000    
CHECKFREQ   2
MAXCHECK   10.000000   
DAMPLIMIT   0.000000    
DEMAND MULTIPLIER 1.000000    
UNBALANCED CONTINUE 10

[TURBINES]
;------------------------------------------------------
; ID                                                   
;------------------------------------------------------

[COORDINATES]
;------------------------------------------------------
;Node              X-coord      Y-coord
;ID
;------------------------------------------------------
10                 6.096000     21.336000   
11                 9.144000     21.336000   
12                 15.240000    21.336000   
13                 21.336000    21.336000   
21                 9.144000     12.192000   
22                 15.240000    12.192000   
23                 21.336000    12.192000   
31                 9.144000     3.048000    
32                 15.240000    3.048000    
2                  15.240000    27.432000   
9                  3.048000     21.336000   

[VERTICES]
;------------------------------------------------------
;Link              X-coord      Y-coord
;ID
;------------------------------------------------------

[END]
